<?xml version="1.0" encoding="UTF-8"?>

<!-- generated on 2022-01-21 17:02:01 by Eclipse SUMO netedit Version 1.11.0
<configuration xmlns:xsi="http://www.w3.org/2001/XMLSchema-instance" xsi:noNamespaceSchemaLocation="http://sumo.dlr.de/xsd/netconvertConfiguration.xsd">

    <input>
        <sumo-net-file value="/home/ece/Desktop/SUMO/map2_withoutTL/map2.net.xml"/>
    </input>

    <output>
        <output-file value="/home/ece/Desktop/SUMO/map2_withoutTL/map2.net.xml"/>
    </output>

    <processing>
        <geometry.min-radius.fix.railways value="false"/>
        <geometry.max-grade.fix value="false"/>
        <offset.disable-normalization value="true"/>
        <lefthand value="false"/>
    </processing>

    <junctions>
        <no-turnarounds value="true"/>
        <junctions.corner-detail value="5"/>
        <junctions.limit-turn-speed value="5.5"/>
        <rectangular-lane-cut value="false"/>
    </junctions>

    <pedestrian>
        <walkingareas value="false"/>
    </pedestrian>

    <report>
        <aggregate-warnings value="5"/>
    </report>

</configuration>
-->

<net version="1.9" junctionCornerDetail="5" limitTurnSpeed="5.50" xmlns:xsi="http://www.w3.org/2001/XMLSchema-instance" xsi:noNamespaceSchemaLocation="http://sumo.dlr.de/xsd/net_file.xsd">

    <location netOffset="0.00,0.00" convBoundary="0.00,0.00,300.00,200.00" origBoundary="-10000000000.00,-10000000000.00,10000000000.00,10000000000.00" projParameter="!"/>

    <edge id=":J1_0" function="internal">
        <lane id=":J1_0_0" index="0" speed="6.51" length="9.03" shape="98.40,107.20 98.05,104.75 97.00,103.00 95.25,101.95 92.80,101.60"/>
    </edge>
    <edge id=":J1_1" function="internal">
        <lane id=":J1_1_0" index="0" speed="13.89" length="14.40" shape="98.40,107.20 98.40,92.80"/>
    </edge>
    <edge id=":J1_2" function="internal">
        <lane id=":J1_2_0" index="0" speed="8.00" length="5.93" shape="98.40,107.20 98.95,103.35 100.00,101.60"/>
    </edge>
    <edge id=":J1_12" function="internal">
        <lane id=":J1_12_0" index="0" speed="8.00" length="8.26" shape="100.00,101.60 100.60,100.60 103.35,98.95 107.20,98.40"/>
    </edge>
    <edge id=":J1_3" function="internal">
        <lane id=":J1_3_0" index="0" speed="6.51" length="9.03" shape="107.20,101.60 104.75,101.95 103.00,103.00 101.95,104.75 101.60,107.20"/>
    </edge>
    <edge id=":J1_4" function="internal">
        <lane id=":J1_4_0" index="0" speed="13.89" length="14.40" shape="107.20,101.60 92.80,101.60"/>
    </edge>
    <edge id=":J1_5" function="internal">
        <lane id=":J1_5_0" index="0" speed="8.00" length="5.93" shape="107.20,101.60 103.35,101.05 101.60,100.00"/>
    </edge>
    <edge id=":J1_13" function="internal">
        <lane id=":J1_13_0" index="0" speed="8.00" length="8.26" shape="101.60,100.00 100.60,99.40 98.95,96.65 98.40,92.80"/>
    </edge>
    <edge id=":J1_6" function="internal">
        <lane id=":J1_6_0" index="0" speed="6.51" length="9.03" shape="101.60,92.80 101.95,95.25 103.00,97.00 104.75,98.05 107.20,98.40"/>
    </edge>
    <edge id=":J1_7" function="internal">
        <lane id=":J1_7_0" index="0" speed="13.89" length="14.40" shape="101.60,92.80 101.60,107.20"/>
    </edge>
    <edge id=":J1_8" function="internal">
        <lane id=":J1_8_0" index="0" speed="8.00" length="5.93" shape="101.60,92.80 101.05,96.65 100.00,98.40"/>
    </edge>
    <edge id=":J1_14" function="internal">
        <lane id=":J1_14_0" index="0" speed="8.00" length="8.26" shape="100.00,98.40 99.40,99.40 96.65,101.05 92.80,101.60"/>
    </edge>
    <edge id=":J1_9" function="internal">
        <lane id=":J1_9_0" index="0" speed="6.51" length="9.03" shape="92.80,98.40 95.25,98.05 97.00,97.00 98.05,95.25 98.40,92.80"/>
    </edge>
    <edge id=":J1_10" function="internal">
        <lane id=":J1_10_0" index="0" speed="13.89" length="14.40" shape="92.80,98.40 107.20,98.40"/>
    </edge>
    <edge id=":J1_11" function="internal">
        <lane id=":J1_11_0" index="0" speed="8.00" length="5.93" shape="92.80,98.40 96.65,98.95 98.40,100.00"/>
    </edge>
    <edge id=":J1_15" function="internal">
        <lane id=":J1_15_0" index="0" speed="8.00" length="8.26" shape="98.40,100.00 99.40,100.60 101.05,103.35 101.60,107.20"/>
    </edge>
    <edge id=":J3_0" function="internal">
        <lane id=":J3_0_0" index="0" speed="6.51" length="9.03" shape="198.40,107.20 198.05,104.75 197.00,103.00 195.25,101.95 192.80,101.60"/>
    </edge>
    <edge id=":J3_1" function="internal">
        <lane id=":J3_1_0" index="0" speed="13.89" length="14.40" shape="198.40,107.20 198.40,92.80"/>
    </edge>
    <edge id=":J3_2" function="internal">
        <lane id=":J3_2_0" index="0" speed="8.00" length="5.93" shape="198.40,107.20 198.95,103.35 200.00,101.60"/>
    </edge>
    <edge id=":J3_12" function="internal">
        <lane id=":J3_12_0" index="0" speed="8.00" length="8.26" shape="200.00,101.60 200.60,100.60 203.35,98.95 207.20,98.40"/>
    </edge>
    <edge id=":J3_3" function="internal">
        <lane id=":J3_3_0" index="0" speed="6.51" length="9.03" shape="207.20,101.60 204.75,101.95 203.00,103.00 201.95,104.75 201.60,107.20"/>
    </edge>
    <edge id=":J3_4" function="internal">
        <lane id=":J3_4_0" index="0" speed="13.89" length="14.40" shape="207.20,101.60 192.80,101.60"/>
    </edge>
    <edge id=":J3_5" function="internal">
        <lane id=":J3_5_0" index="0" speed="8.00" length="5.93" shape="207.20,101.60 203.35,101.05 201.60,100.00"/>
    </edge>
    <edge id=":J3_13" function="internal">
        <lane id=":J3_13_0" index="0" speed="8.00" length="8.26" shape="201.60,100.00 200.60,99.40 198.95,96.65 198.40,92.80"/>
    </edge>
    <edge id=":J3_6" function="internal">
        <lane id=":J3_6_0" index="0" speed="6.51" length="9.03" shape="201.60,92.80 201.95,95.25 203.00,97.00 204.75,98.05 207.20,98.40"/>
    </edge>
    <edge id=":J3_7" function="internal">
        <lane id=":J3_7_0" index="0" speed="13.89" length="14.40" shape="201.60,92.80 201.60,107.20"/>
    </edge>
    <edge id=":J3_8" function="internal">
        <lane id=":J3_8_0" index="0" speed="8.00" length="5.93" shape="201.60,92.80 201.05,96.65 200.00,98.40"/>
    </edge>
    <edge id=":J3_14" function="internal">
        <lane id=":J3_14_0" index="0" speed="8.00" length="8.26" shape="200.00,98.40 199.40,99.40 196.65,101.05 192.80,101.60"/>
    </edge>
    <edge id=":J3_9" function="internal">
        <lane id=":J3_9_0" index="0" speed="6.51" length="9.03" shape="192.80,98.40 195.25,98.05 197.00,97.00 198.05,95.25 198.40,92.80"/>
    </edge>
    <edge id=":J3_10" function="internal">
        <lane id=":J3_10_0" index="0" speed="13.89" length="14.40" shape="192.80,98.40 207.20,98.40"/>
    </edge>
    <edge id=":J3_11" function="internal">
        <lane id=":J3_11_0" index="0" speed="8.00" length="5.93" shape="192.80,98.40 196.65,98.95 198.40,100.00"/>
    </edge>
    <edge id=":J3_15" function="internal">
        <lane id=":J3_15_0" index="0" speed="8.00" length="8.26" shape="198.40,100.00 199.40,100.60 201.05,103.35 201.60,107.20"/>
    </edge>

    <edge id="-E0" from="J1" to="J0" priority="-1">
        <lane id="-E0_0" index="0" speed="13.89" length="92.80" shape="92.80,101.60 0.00,101.60"/>
    </edge>
    <edge id="-E1" from="J1" to="J2" priority="-1">
        <lane id="-E1_0" index="0" speed="13.89" length="92.80" shape="101.60,107.20 101.60,200.00"/>
    </edge>
    <edge id="-E2" from="J1" to="J3" priority="-1">
        <lane id="-E2_0" index="0" speed="13.89" length="85.60" shape="107.20,98.40 192.80,98.40"/>
    </edge>
    <edge id="-E3" from="J1" to="J4" priority="-1">
        <lane id="-E3_0" index="0" speed="13.89" length="92.80" shape="98.40,92.80 98.40,0.00"/>
    </edge>
    <edge id="-E4" from="J5" to="J3" priority="-1">
        <lane id="-E4_0" index="0" speed="13.89" length="92.80" shape="198.40,200.00 198.40,107.20"/>
    </edge>
    <edge id="-E5" from="J6" to="J3" priority="-1">
        <lane id="-E5_0" index="0" speed="13.89" length="92.80" shape="300.00,101.60 207.20,101.60"/>
    </edge>
    <edge id="-E6" from="J7" to="J3" priority="-1">
        <lane id="-E6_0" index="0" speed="13.89" length="92.80" shape="201.60,0.00 201.60,92.80"/>
    </edge>
    <edge id="E0" from="J0" to="J1" priority="-1">
        <lane id="E0_0" index="0" speed="13.89" length="92.80" shape="0.00,98.40 92.80,98.40"/>
    </edge>
    <edge id="E1" from="J2" to="J1" priority="-1">
        <lane id="E1_0" index="0" speed="13.89" length="92.80" shape="98.40,200.00 98.40,107.20"/>
    </edge>
    <edge id="E2" from="J3" to="J1" priority="-1">
        <lane id="E2_0" index="0" speed="13.89" length="85.60" shape="192.80,101.60 107.20,101.60"/>
    </edge>
    <edge id="E3" from="J4" to="J1" priority="-1">
        <lane id="E3_0" index="0" speed="13.89" length="92.80" shape="101.60,0.00 101.60,92.80"/>
    </edge>
    <edge id="E4" from="J3" to="J5" priority="-1">
        <lane id="E4_0" index="0" speed="13.89" length="92.80" shape="201.60,107.20 201.60,200.00"/>
    </edge>
    <edge id="E5" from="J3" to="J6" priority="-1">
        <lane id="E5_0" index="0" speed="13.89" length="92.80" shape="207.20,98.40 300.00,98.40"/>
    </edge>
    <edge id="E6" from="J3" to="J7" priority="-1">
        <lane id="E6_0" index="0" speed="13.89" length="92.80" shape="198.40,92.80 198.40,0.00"/>
    </edge>

    <tlLogic id="J1" type="static" programID="0" offset="0">
        <phase duration="42" state="GGgrrrGGgrrr"/>
        <phase duration="3"  state="yyyrrryyyrrr"/>
        <phase duration="42" state="rrrGGgrrrGGg"/>
        <phase duration="3"  state="rrryyyrrryyy"/>
    </tlLogic>
    <tlLogic id="J3" type="static" programID="0" offset="0">
        <phase duration="42" state="GGgrrrGGgrrr"/>
        <phase duration="3"  state="yyyrrryyyrrr"/>
        <phase duration="42" state="rrrGGgrrrGGg"/>
        <phase duration="3"  state="rrryyyrrryyy"/>
    </tlLogic>

    <junction id="J0" type="dead_end" x="0.00" y="100.00" incLanes="-E0_0" intLanes="" shape="0.00,100.00 0.00,103.20 0.00,100.00"/>
    <junction id="J1" type="traffic_light" x="100.00" y="100.00" incLanes="E1_0 E2_0 E3_0 E0_0" intLanes=":J1_0_0 :J1_1_0 :J1_12_0 :J1_3_0 :J1_4_0 :J1_13_0 :J1_6_0 :J1_7_0 :J1_14_0 :J1_9_0 :J1_10_0 :J1_15_0" shape="96.80,107.20 103.20,107.20 103.64,104.98 104.20,104.20 104.98,103.64 105.98,103.31 107.20,103.20 107.20,96.80 104.98,96.36 104.20,95.80 103.64,95.02 103.31,94.02 103.20,92.80 96.80,92.80 96.36,95.02 95.80,95.80 95.02,96.36 94.02,96.69 92.80,96.80 92.80,103.20 95.02,103.64 95.80,104.20 96.36,104.98 96.69,105.98">
        <request index="0"  response="000000000000" foes="000100010000" cont="0"/>
        <request index="1"  response="100000100000" foes="111100110000" cont="0"/>
        <request index="2"  response="100011100000" foes="110011110000" cont="1"/>
        <request index="3"  response="000010000000" foes="100010000000" cont="0"/>
        <request index="4"  response="000110000111" foes="100110000111" cont="0"/>
        <request index="5"  response="011110000110" foes="011110000110" cont="1"/>
        <request index="6"  response="000000000000" foes="010000000100" cont="0"/>
        <request index="7"  response="100000100000" foes="110000111100" cont="0"/>
        <request index="8"  response="100000100011" foes="110000110011" cont="1"/>
        <request index="9"  response="000000000010" foes="000000100010" cont="0"/>
        <request index="10" response="000111000110" foes="000111100110" cont="0"/>
        <request index="11" response="000110011110" foes="000110011110" cont="1"/>
    </junction>
    <junction id="J2" type="dead_end" x="100.00" y="200.00" incLanes="-E1_0" intLanes="" shape="100.00,200.00 103.20,200.00 100.00,200.00"/>
    <junction id="J3" type="traffic_light" x="200.00" y="100.00" incLanes="-E4_0 -E5_0 -E6_0 -E2_0" intLanes=":J3_0_0 :J3_1_0 :J3_12_0 :J3_3_0 :J3_4_0 :J3_13_0 :J3_6_0 :J3_7_0 :J3_14_0 :J3_9_0 :J3_10_0 :J3_15_0" shape="196.80,107.20 203.20,107.20 203.64,104.98 204.20,104.20 204.98,103.64 205.98,103.31 207.20,103.20 207.20,96.80 204.98,96.36 204.20,95.80 203.64,95.02 203.31,94.02 203.20,92.80 196.80,92.80 196.36,95.02 195.80,95.80 195.02,96.36 194.02,96.69 192.80,96.80 192.80,103.20 195.02,103.64 195.80,104.20 196.36,104.98 196.69,105.98">
        <request index="0"  response="000000000000" foes="000100010000" cont="0"/>
        <request index="1"  response="100000100000" foes="111100110000" cont="0"/>
        <request index="2"  response="100011100000" foes="110011110000" cont="1"/>
        <request index="3"  response="000010000000" foes="100010000000" cont="0"/>
        <request index="4"  response="000110000111" foes="100110000111" cont="0"/>
        <request index="5"  response="011110000110" foes="011110000110" cont="1"/>
        <request index="6"  response="000000000000" foes="010000000100" cont="0"/>
        <request index="7"  response="100000100000" foes="110000111100" cont="0"/>
        <request index="8"  response="100000100011" foes="110000110011" cont="1"/>
        <request index="9"  response="000000000010" foes="000000100010" cont="0"/>
        <request index="10" response="000111000110" foes="000111100110" cont="0"/>
        <request index="11" response="000110011110" foes="000110011110" cont="1"/>
    </junction>
    <junction id="J4" type="dead_end" x="100.00" y="0.00" incLanes="-E3_0" intLanes="" shape="100.00,0.00 96.80,0.00 100.00,0.00"/>
    <junction id="J5" type="dead_end" x="200.00" y="200.00" incLanes="E4_0" intLanes="" shape="200.00,200.00 203.20,200.00 200.00,200.00"/>
    <junction id="J6" type="dead_end" x="300.00" y="100.00" incLanes="E5_0" intLanes="" shape="300.00,100.00 300.00,96.80 300.00,100.00"/>
    <junction id="J7" type="dead_end" x="200.00" y="0.00" incLanes="E6_0" intLanes="" shape="200.00,0.00 196.80,0.00 200.00,0.00"/>

    <junction id=":J1_12_0" type="internal" x="100.00" y="101.60" incLanes=":J1_2_0 E3_0" intLanes=":J1_4_0 :J1_5_0 :J1_6_0 :J1_7_0 :J1_10_0 :J1_11_0"/>
    <junction id=":J1_13_0" type="internal" x="101.60" y="100.00" incLanes=":J1_5_0 E0_0" intLanes=":J1_1_0 :J1_2_0 :J1_7_0 :J1_8_0 :J1_9_0 :J1_10_0"/>
    <junction id=":J1_14_0" type="internal" x="100.00" y="98.40" incLanes=":J1_8_0 E1_0" intLanes=":J1_0_0 :J1_1_0 :J1_4_0 :J1_5_0 :J1_10_0 :J1_11_0"/>
    <junction id=":J1_15_0" type="internal" x="98.40" y="100.00" incLanes=":J1_11_0 E2_0" intLanes=":J1_1_0 :J1_2_0 :J1_3_0 :J1_4_0 :J1_7_0 :J1_8_0"/>
    <junction id=":J3_12_0" type="internal" x="200.00" y="101.60" incLanes=":J3_2_0 -E6_0" intLanes=":J3_4_0 :J3_5_0 :J3_6_0 :J3_7_0 :J3_10_0 :J3_11_0"/>
    <junction id=":J3_13_0" type="internal" x="201.60" y="100.00" incLanes=":J3_5_0 -E2_0" intLanes=":J3_1_0 :J3_2_0 :J3_7_0 :J3_8_0 :J3_9_0 :J3_10_0"/>
    <junction id=":J3_14_0" type="internal" x="200.00" y="98.40" incLanes=":J3_8_0 -E4_0" intLanes=":J3_0_0 :J3_1_0 :J3_4_0 :J3_5_0 :J3_10_0 :J3_11_0"/>
    <junction id=":J3_15_0" type="internal" x="198.40" y="100.00" incLanes=":J3_11_0 -E5_0" intLanes=":J3_1_0 :J3_2_0 :J3_3_0 :J3_4_0 :J3_7_0 :J3_8_0"/>

    <connection from="-E2" to="E6" fromLane="0" toLane="0" via=":J3_9_0" tl="J3" linkIndex="9" dir="r" state="o"/>
    <connection from="-E2" to="E5" fromLane="0" toLane="0" via=":J3_10_0" tl="J3" linkIndex="10" dir="s" state="o"/>
    <connection from="-E2" to="E4" fromLane="0" toLane="0" via=":J3_11_0" tl="J3" linkIndex="11" dir="l" state="o"/>
    <connection from="-E4" to="E2" fromLane="0" toLane="0" via=":J3_0_0" tl="J3" linkIndex="0" dir="r" state="O"/>
    <connection from="-E4" to="E6" fromLane="0" toLane="0" via=":J3_1_0" tl="J3" linkIndex="1" dir="s" state="O"/>
    <connection from="-E4" to="E5" fromLane="0" toLane="0" via=":J3_2_0" tl="J3" linkIndex="2" dir="l" state="o"/>
    <connection from="-E5" to="E4" fromLane="0" toLane="0" via=":J3_3_0" tl="J3" linkIndex="3" dir="r" state="o"/>
    <connection from="-E5" to="E2" fromLane="0" toLane="0" via=":J3_4_0" tl="J3" linkIndex="4" dir="s" state="o"/>
    <connection from="-E5" to="E6" fromLane="0" toLane="0" via=":J3_5_0" tl="J3" linkIndex="5" dir="l" state="o"/>
    <connection from="-E6" to="E5" fromLane="0" toLane="0" via=":J3_6_0" tl="J3" linkIndex="6" dir="r" state="O"/>
    <connection from="-E6" to="E4" fromLane="0" toLane="0" via=":J3_7_0" tl="J3" linkIndex="7" dir="s" state="O"/>
    <connection from="-E6" to="E2" fromLane="0" toLane="0" via=":J3_8_0" tl="J3" linkIndex="8" dir="l" state="o"/>
    <connection from="E0" to="-E3" fromLane="0" toLane="0" via=":J1_9_0" tl="J1" linkIndex="9" dir="r" state="o"/>
    <connection from="E0" to="-E2" fromLane="0" toLane="0" via=":J1_10_0" tl="J1" linkIndex="10" dir="s" state="o"/>
    <connection from="E0" to="-E1" fromLane="0" toLane="0" via=":J1_11_0" tl="J1" linkIndex="11" dir="l" state="o"/>
    <connection from="E1" to="-E0" fromLane="0" toLane="0" via=":J1_0_0" tl="J1" linkIndex="0" dir="r" state="O"/>
    <connection from="E1" to="-E3" fromLane="0" toLane="0" via=":J1_1_0" tl="J1" linkIndex="1" dir="s" state="O"/>
    <connection from="E1" to="-E2" fromLane="0" toLane="0" via=":J1_2_0" tl="J1" linkIndex="2" dir="l" state="o"/>
    <connection from="E2" to="-E1" fromLane="0" toLane="0" via=":J1_3_0" tl="J1" linkIndex="3" dir="r" state="o"/>
    <connection from="E2" to="-E0" fromLane="0" toLane="0" via=":J1_4_0" tl="J1" linkIndex="4" dir="s" state="o"/>
    <connection from="E2" to="-E3" fromLane="0" toLane="0" via=":J1_5_0" tl="J1" linkIndex="5" dir="l" state="o"/>
    <connection from="E3" to="-E2" fromLane="0" toLane="0" via=":J1_6_0" tl="J1" linkIndex="6" dir="r" state="O"/>
    <connection from="E3" to="-E1" fromLane="0" toLane="0" via=":J1_7_0" tl="J1" linkIndex="7" dir="s" state="O"/>
    <connection from="E3" to="-E0" fromLane="0" toLane="0" via=":J1_8_0" tl="J1" linkIndex="8" dir="l" state="o"/>

    <connection from=":J1_0" to="-E0" fromLane="0" toLane="0" dir="r" state="M"/>
    <connection from=":J1_1" to="-E3" fromLane="0" toLane="0" dir="s" state="M"/>
    <connection from=":J1_2" to="-E2" fromLane="0" toLane="0" via=":J1_12_0" dir="l" state="m"/>
    <connection from=":J1_12" to="-E2" fromLane="0" toLane="0" dir="l" state="M"/>
    <connection from=":J1_3" to="-E1" fromLane="0" toLane="0" dir="r" state="M"/>
    <connection from=":J1_4" to="-E0" fromLane="0" toLane="0" dir="s" state="M"/>
    <connection from=":J1_5" to="-E3" fromLane="0" toLane="0" via=":J1_13_0" dir="l" state="m"/>
    <connection from=":J1_13" to="-E3" fromLane="0" toLane="0" dir="l" state="M"/>
    <connection from=":J1_6" to="-E2" fromLane="0" toLane="0" dir="r" state="M"/>
    <connection from=":J1_7" to="-E1" fromLane="0" toLane="0" dir="s" state="M"/>
    <connection from=":J1_8" to="-E0" fromLane="0" toLane="0" via=":J1_14_0" dir="l" state="m"/>
    <connection from=":J1_14" to="-E0" fromLane="0" toLane="0" dir="l" state="M"/>
    <connection from=":J1_9" to="-E3" fromLane="0" toLane="0" dir="r" state="M"/>
    <connection from=":J1_10" to="-E2" fromLane="0" toLane="0" dir="s" state="M"/>
    <connection from=":J1_11" to="-E1" fromLane="0" toLane="0" via=":J1_15_0" dir="l" state="m"/>
    <connection from=":J1_15" to="-E1" fromLane="0" toLane="0" dir="l" state="M"/>
    <connection from=":J3_0" to="E2" fromLane="0" toLane="0" dir="r" state="M"/>
    <connection from=":J3_1" to="E6" fromLane="0" toLane="0" dir="s" state="M"/>
    <connection from=":J3_2" to="E5" fromLane="0" toLane="0" via=":J3_12_0" dir="l" state="m"/>
    <connection from=":J3_12" to="E5" fromLane="0" toLane="0" dir="l" state="M"/>
    <connection from=":J3_3" to="E4" fromLane="0" toLane="0" dir="r" state="M"/>
    <connection from=":J3_4" to="E2" fromLane="0" toLane="0" dir="s" state="M"/>
    <connection from=":J3_5" to="E6" fromLane="0" toLane="0" via=":J3_13_0" dir="l" state="m"/>
    <connection from=":J3_13" to="E6" fromLane="0" toLane="0" dir="l" state="M"/>
    <connection from=":J3_6" to="E5" fromLane="0" toLane="0" dir="r" state="M"/>
    <connection from=":J3_7" to="E4" fromLane="0" toLane="0" dir="s" state="M"/>
    <connection from=":J3_8" to="E2" fromLane="0" toLane="0" via=":J3_14_0" dir="l" state="m"/>
    <connection from=":J3_14" to="E2" fromLane="0" toLane="0" dir="l" state="M"/>
    <connection from=":J3_9" to="E6" fromLane="0" toLane="0" dir="r" state="M"/>
    <connection from=":J3_10" to="E5" fromLane="0" toLane="0" dir="s" state="M"/>
    <connection from=":J3_11" to="E4" fromLane="0" toLane="0" via=":J3_15_0" dir="l" state="m"/>
    <connection from=":J3_15" to="E4" fromLane="0" toLane="0" dir="l" state="M"/>

</net>
