<?xml version="1.0" encoding="UTF-8"?>

<!-- generated on 2022-01-21 14:33:38 by Eclipse SUMO GUI Version 1.11.0
-->

<configuration xmlns:xsi="http://www.w3.org/2001/XMLSchema-instance" xsi:noNamespaceSchemaLocation="http://sumo.dlr.de/xsd/sumoConfiguration.xsd">

    <input>
        <net-file value="/home/ece/Desktop/SUMO/map2_withoutTL/map2.net.xml"/>
        <route-files value="/home/ece/Desktop/SUMO/map2_withoutTL/map2.rou.xml"/>
    </input>

</configuration>
